ElectricityNetView/data/dss/cm_VLN_Node.Txt

NODE-GROUND VOLTAGES BY BUS & NODE

Bus   Node    V (kV)    Angle      p.u.   Base kV

南通海门变  1     80.785 /_    0.0      1.06   132.000
   -   2     80.785 /_ -120.0      1.06   132.000
   -   3     80.785 /_  120.0      1.06   132.000
中双港站   1     90.576 /_   -7.8    1.1885   132.000
   -   2     90.576 /_ -127.8    1.1885   132.000
   -   3     90.576 /_  112.2    1.1885   132.000
堡北站 .  1     91.752 /_   -8.7    1.2039   132.000
   -   2     91.752 /_ -128.7    1.2039   132.000
   -   3     91.752 /_  111.3    1.2039   132.000
陈家镇站   1     93.072 /_   -9.5    1.2213   132.000
   -   2     93.072 /_ -129.5    1.2213   132.000
   -   3     93.072 /_  110.5    1.2213   132.000
长兴站 .  1     93.372 /_   -9.5    1.2252   132.000
   -   2     93.372 /_ -129.5    1.2252   132.000
   -   3     93.372 /_  110.5    1.2252   132.000
南门站 .  1     91.156 /_   -8.3    1.1961   132.000
   -   2     91.156 /_ -128.3    1.1961   132.000
   -   3     91.156 /_  111.7    1.1961   132.000
红星站 .  1     90.796 /_   -7.9    1.1914   132.000
   -   2     90.796 /_ -127.9    1.1914   132.000
   -   3     90.796 /_  112.1    1.1914   132.000
新海站 .  1      89.54 /_   -7.1    1.1749   132.000
   -   2      89.54 /_ -127.1    1.1749   132.000
   -   3      89.54 /_  112.9    1.1749   132.000
竖河站 .  1     92.362 /_   -9.5    1.2119   132.000
   -   2     92.362 /_ -129.5    1.2119   132.000
   -   3     92.362 /_  110.5    1.2119   132.000
长江站 .  1     91.862 /_   -8.8    1.2054   132.000
   -   2     91.862 /_ -128.8    1.2054   132.000
   -   3     91.862 /_  111.2    1.2054   132.000
汲浜站 .  1     93.073 /_   -9.4    1.2213   132.000
   -   2     93.073 /_ -129.4    1.2213   132.000
   -   3     93.073 /_  110.6    1.2213   132.000
东风站 .  1      90.86 /_   -8.3    1.1922   132.000
   -   2      90.86 /_ -128.3    1.1922   132.000
   -   3      90.86 /_  111.7    1.1922   132.000
庙镇站 .  1     90.681 /_   -8.0    1.1899   132.000
   -   2     90.681 /_ -128.0    1.1899   132.000
   -   3     90.681 /_  112.0    1.1899   132.000
园区站 .  1     90.953 /_   -8.2    1.1935   132.000
   -   2     90.953 /_ -128.2    1.1935   132.000
   -   3     90.953 /_  111.8    1.1935   132.000
明珠站 .  1     90.953 /_   -8.2    1.1935   132.000
   -   2     90.953 /_ -128.2    1.1935   132.000
   -   3     90.953 /_  111.8    1.1935   132.000
建设站 .  1     90.621 /_   -8.6    1.1891   132.000
   -   2     90.621 /_ -128.6    1.1891   132.000
   -   3     90.621 /_  111.4    1.1891   132.000
湄洲站 .  1     90.953 /_   -8.2    1.1935   132.000
   -   2     90.953 /_ -128.2    1.1935   132.000
   -   3     90.953 /_  111.8    1.1935   132.000
大同站 .  1     90.953 /_   -8.2    1.1935   132.000
   -   2     90.953 /_ -128.2    1.1935   132.000
   -   3     90.953 /_  111.8    1.1935   132.000
五滧站 .  1       92.5 /_   -9.3    1.2138   132.000
   -   2       92.5 /_ -129.3    1.2138   132.000
   -   3       92.5 /_  110.7    1.2138   132.000
堡镇站 .  1     91.627 /_   -9.0    1.2023   132.000
   -   2     91.627 /_ -129.0    1.2023   132.000
   -   3     91.627 /_  111.0    1.2023   132.000
上船站 .  1     91.627 /_   -9.0    1.2023   132.000
   -   2     91.627 /_ -129.0    1.2023   132.000
   -   3     91.627 /_  111.0    1.2023   132.000
港沿站 .  1     91.966 /_   -9.1    1.2067   132.000
   -   2     91.966 /_ -129.1    1.2067   132.000
   -   3     91.966 /_  110.9    1.2067   132.000
裕安站 .  1     92.945 /_   -9.8    1.2196   132.000
   -   2     92.945 /_ -129.8    1.2196   132.000
   -   3     92.945 /_  110.2    1.2196   132.000
前哨站 .  1     92.945 /_   -9.8    1.2196   132.000
   -   2     92.945 /_ -129.8    1.2196   132.000
   -   3     92.945 /_  110.2    1.2196   132.000
陈东站 .  1     92.945 /_   -9.8    1.2196   132.000
   -   2     92.945 /_ -129.8    1.2196   132.000
   -   3     92.945 /_  110.2    1.2196   132.000
崇安站 .  1     91.032 /_   -8.6    1.1945   132.000
   -   2     91.032 /_ -128.6    1.1945   132.000
   -   3     91.032 /_  111.4    1.1945   132.000
新闸站 .  1     91.032 /_   -8.6    1.1945   132.000
   -   2     91.032 /_ -128.6    1.1945   132.000
   -   3     91.032 /_  111.4    1.1945   132.000
跃进站 .  1     89.418 /_   -7.4    1.1733   132.000
   -   2     89.418 /_ -127.4    1.1733   132.000
   -   3     89.418 /_  112.6    1.1733   132.000
三星站 .  1     90.195 /_   -7.7    1.1835   132.000
   -   2     90.195 /_ -127.7    1.1835   132.000
   -   3     90.195 /_  112.3    1.1835   132.000
前卫站 .  1     91.737 /_   -9.1    1.2037   132.000
   -   2     91.737 /_ -129.1    1.2037   132.000
   -   3     91.737 /_  110.9    1.2037   132.000
前进站 .  1     92.003 /_   -9.1    1.2072   132.000
   -   2     92.003 /_ -129.1    1.2072   132.000
   -   3     92.003 /_  110.9    1.2072   132.000
富盛站 .  1     92.237 /_   -9.9    1.2103   132.000
   -   2     92.237 /_ -129.9    1.2103   132.000
   -   3     92.237 /_  110.1    1.2103   132.000
新河站 .  1     92.237 /_   -9.9    1.2103   132.000
   -   2     92.237 /_ -129.9    1.2103   132.000
   -   3     92.237 /_  110.1    1.2103   132.000
森林站 .  1     90.498 /_   -8.9    1.1875   132.000
   -   2     90.498 /_ -128.9    1.1875   132.000
   -   3     90.498 /_  111.1    1.1875   132.000
启隆站 .  1     90.736 /_   -8.6    1.1906   132.000
   -   2     90.736 /_ -128.6    1.1906   132.000
   -   3     90.736 /_  111.4    1.1906   132.000
